Version 4
SHEET 1 976 680
WIRE 64 144 -96 144
WIRE 176 144 144 144
WIRE 224 144 176 144
WIRE 352 144 224 144
WIRE 448 144 352 144
WIRE 176 192 176 144
WIRE 224 192 224 144
WIRE -96 208 -96 144
WIRE 176 288 176 256
WIRE 224 288 224 256
WIRE 224 288 176 288
WIRE 336 288 224 288
WIRE 224 304 224 288
WIRE 336 320 336 288
WIRE -96 336 -96 288
WIRE 224 432 224 384
FLAG 224 432 0
FLAG 336 400 0
FLAG -96 336 0
FLAG 448 144 V_out
IOPIN 448 144 Out
FLAG 352 224 0
SYMBOL ind 48 160 R270
WINDOW 0 32 56 VTop 2
WINDOW 3 5 56 VBottom 2
SYMATTR InstName L1
SYMATTR Value 4.7µ
SYMBOL cap 208 192 R0
SYMATTR InstName C1
SYMATTR Value 4.7µ
SYMBOL res 208 288 R0
SYMATTR InstName R1
SYMATTR Value 1k
SYMBOL res 320 304 R0
SYMATTR InstName R2
SYMATTR Value 150
SYMBOL res 336 128 R0
SYMATTR InstName R3
SYMATTR Value 150
SYMBOL voltage -96 192 R0
WINDOW 123 0 0 Left 0
WINDOW 39 0 0 Left 0
WINDOW 3 24 44 Left 2
SYMATTR InstName V1
SYMATTR Value AC 1
SYMBOL cap 160 192 R0
SYMATTR InstName C2
SYMATTR Value 100µ
TEXT 512 256 Left 2 !.ac oct 1000 1000 3000000
TEXT 504 200 Left 2 ;V(v_out) / (I(V1) - I(C2) - I(C1) - I(R3))
