Version 4
SHEET 1 976 680
WIRE 64 144 -96 144
WIRE 176 144 144 144
WIRE 224 144 176 144
WIRE 448 144 224 144
WIRE 176 192 176 144
WIRE 224 192 224 144
WIRE -96 208 -96 144
WIRE 176 288 176 256
WIRE 224 288 224 256
WIRE 224 288 176 288
WIRE 336 288 224 288
WIRE 224 304 224 288
WIRE 336 320 336 288
WIRE -96 336 -96 288
WIRE 224 432 224 384
WIRE 272 432 224 432
WIRE 336 432 336 400
WIRE 336 432 272 432
WIRE 272 448 272 432
WIRE 384 448 272 448
WIRE 272 464 272 448
FLAG -96 336 0
FLAG 448 144 V_out
IOPIN 448 144 Out
FLAG 272 464 0
FLAG 384 448 port2
IOPIN 384 448 Out
SYMBOL ind 48 160 R270
WINDOW 0 32 56 VTop 2
WINDOW 3 5 56 VBottom 2
SYMATTR InstName L1
SYMATTR Value 5p
SYMBOL cap 208 192 R0
SYMATTR InstName C1
SYMATTR Value 4.7µ
SYMBOL res 320 304 R0
SYMATTR InstName R2
SYMATTR Value 100
SYMBOL voltage -96 192 R0
WINDOW 123 24 44 Left 2
WINDOW 39 0 0 Left 0
WINDOW 3 24 72 Left 2
SYMATTR Value2 AC 1
SYMATTR Value ""
SYMATTR InstName V1
SYMBOL cap 160 192 R0
SYMATTR InstName C2
SYMATTR Value 100µ
SYMBOL res 208 288 R0
SYMATTR InstName R1
SYMATTR Value 10k
TEXT 512 256 Left 2 !.ac oct 1000000 1000 3000000
TEXT 504 200 Left 2 ;V(v_out) / (I(V1) - I(C2) - I(C1))
