Version 4
SHEET 1 1324 680
WIRE 960 64 912 64
WIRE 64 144 -96 144
WIRE 224 144 144 144
WIRE 640 144 224 144
WIRE 960 144 640 144
WIRE 1056 144 960 144
WIRE 224 192 224 144
WIRE -96 208 -96 144
WIRE 640 240 640 208
WIRE 752 240 640 240
WIRE 640 256 640 240
WIRE 752 272 752 240
WIRE 224 304 224 256
WIRE -96 336 -96 288
WIRE 640 384 640 336
WIRE 688 384 640 384
WIRE 752 384 752 352
WIRE 752 384 688 384
WIRE 688 400 688 384
WIRE 800 400 688 400
WIRE 688 416 688 400
WIRE 224 432 224 384
WIRE 272 432 224 432
WIRE 272 464 272 432
FLAG -96 336 0
FLAG 1056 144 V_out
IOPIN 1056 144 Out
FLAG 272 464 0
FLAG 688 416 0
FLAG 800 400 port2
IOPIN 800 400 Out
FLAG 912 64 0
SYMBOL ind 48 160 R270
WINDOW 0 32 56 VTop 2
WINDOW 3 5 56 VBottom 2
SYMATTR InstName L1
SYMATTR Value 4.7µ
SYMBOL cap 208 192 R0
SYMATTR InstName C1
SYMATTR Value 4.7µ
SYMBOL voltage -96 192 R0
WINDOW 123 24 44 Left 2
WINDOW 39 0 0 Left 0
WINDOW 3 24 72 Left 2
SYMATTR Value2 AC 1
SYMATTR Value ""
SYMATTR InstName V1
SYMBOL cap 624 144 R0
SYMATTR InstName C3
SYMATTR Value 100µ
SYMBOL res 736 256 R0
SYMATTR InstName R3
SYMATTR Value 50
SYMBOL res 624 240 R0
SYMATTR InstName R4
SYMATTR Value 1k
SYMBOL res 208 288 R0
SYMATTR InstName R1
SYMATTR Value 2
SYMBOL res 944 48 R0
SYMATTR InstName R2
SYMATTR Value 50
TEXT 880 240 Left 2 !.ac oct 1000000 1000 3000000
TEXT 864 200 Left 2 ;V(v_out) / (I(V1) - I(R1)-I(R4) - I(R3))
